LTspice 24.0.12 for Windows
Circuit: * C:\Users\aalmela\Documents\git\eaiii\2_Circuitos_de_adaptacion\2_Ejercicios\1_resonadores\eje3\eje3.asc
Start Time: Mon Apr  7 16:07:58 2025
solver = Normal
Maximum thread count: 16
tnom = 27
temp = 27
method = modified trap
.OP point found by inspection.
Total elapsed time: 0.101 seconds.

